<?xml version="1.0" encoding="UTF-8"?>
<!-- Edge definitions for intersection -->
<edges xmlns:xsi="http://www.w3.org/2001/XMLSchema-instance" xsi:noNamespaceSchemaLocation="http://sumo.dlr.de/xsd/edges_file.xsd">
    <!-- Incoming edges -->
    <edge id="north_in" from="north" to="center" numLanes="2" speed="13.89"/>
    <edge id="south_in" from="south" to="center" numLanes="2" speed="13.89"/>
    <edge id="east_in" from="east" to="center" numLanes="2" speed="13.89"/>
    <edge id="west_in" from="west" to="center" numLanes="2" speed="13.89"/>
    
    <!-- Outgoing edges -->
    <edge id="north_out" from="center" to="north" numLanes="2" speed="13.89"/>
    <edge id="south_out" from="center" to="south" numLanes="2" speed="13.89"/>
    <edge id="east_out" from="center" to="east" numLanes="2" speed="13.89"/>
    <edge id="west_out" from="center" to="west" numLanes="2" speed="13.89"/>
</edges>